pandapower/opf/PpPmInterface/test/data/test_tnep.json
{"gen": {"1": {"pg": 9.51327, "qg": 0.0, "gen_bus": 1, "vg": 1.01, "qmax": 1000000000.0, "gen_status": 1, "qmin": -1000000000.0, "pmin": -1e-08, "pmax": 200.00000001, "index": 1, "model": 2, "ncost": 3, "cost": [0, 1.0, 0.0]}, "2": {"pg": 78.403291, "qg": 0.0, "gen_bus": 2, "vg": 1.01, "qmax": 1000000000.0, "gen_status": 1, "qmin": -1000000000.0, "pmin": -1e-08, "pmax": 200.00000001, "index": 2, "model": 2, "ncost": 3, "cost": [0, 3.0, 0.0]}, "3": {"pg": 92.375601, "qg": 0.0, "gen_bus": 3, "vg": 1.01, "qmax": 1000000000.0, "gen_status": 1, "qmin": -1000000000.0, "pmin": -1e-08, "pmax": 200.00000001, "index": 3, "model": 2, "ncost": 3, "cost": [0, 3.0, 0.0]}}, "branch": {"1": {"index": 1, "transformer": false, "br_r": 0.0011223140495867769, "br_x": 0.002371900826446281, "g_fr": -0.0, "g_to": -0.0, "b_fr": 1.164156427695868, "b_to": 1.164156427695868, "rate_a": 17.90940535026219, "rate_b": 250.0, "rate_c": 250.0, "f_bus": 1, "t_bus": 2, "br_status": 1, "angmin": -1.0471975511965976, "angmax": 1.0471975511965976, "tap": 1.0, "shift": 0.0}, "2": {"index": 2, "transformer": false, "br_r": 0.0008016528925619836, "br_x": 0.0016942148760330578, "g_fr": -0.0, "g_to": -0.0, "b_fr": 0.8315403054970485, "b_to": 0.8315403054970485, "rate_a": 17.90940535026219, "rate_b": 250.0, "rate_c": 250.0, "f_bus": 1, "t_bus": 3, "br_status": 1, "angmin": -1.0471975511965976, "angmax": 1.0471975511965976, "tap": 1.0, "shift": 0.0}, "3": {"index": 3, "transformer": false, "br_r": 0.001603305785123967, "br_x": 0.0033884297520661156, "g_fr": -0.0, "g_to": -0.0, "b_fr": 1.663080610994097, "b_to": 1.663080610994097, "rate_a": 17.90940535026219, "rate_b": 250.0, "rate_c": 250.0, "f_bus": 1, "t_bus": 4, "br_status": 1, "angmin": -1.0471975511965976, "angmax": 1.0471975511965976, "tap": 1.0, "shift": 0.0}}, "bus": {"1": {"index": 1, "bus_i": 1, "zone": 1, "bus_type": 3, "vmax": 1.05, "vmin": 0.95, "va": 0.0, "vm": 1.01, "base_kv": 110.0}, "2": {"index": 2, "bus_i": 2, "zone": 1, "bus_type": 2, "vmax": 1.05, "vmin": 0.95, "va": 0.0, "vm": 1.01, "base_kv": 110.0}, "3": {"index": 3, "bus_i": 3, "zone": 1, "bus_type": 2, "vmax": 1.05, "vmin": 0.95, "va": 0.0, "vm": 1.01, "base_kv": 110.0}, "4": {"index": 4, "bus_i": 4, "zone": 1, "bus_type": 1, "vmax": 1.05, "vmin": 0.95, "va": 0.0, "vm": 1.0, "base_kv": 110.0}}, "dcline": {}, "load": {"1": {"pd": 60.0, "qd": 0.0, "load_bus": 2, "status": 1, "index": 1}, "2": {"pd": 70.0, "qd": 0.0, "load_bus": 3, "status": 1, "index": 2}, "3": {"pd": 50.0, "qd": 0.0, "load_bus": 4, "status": 1, "index": 3}}, "storage": {}, "ne_branch": {"1": {"index": 1, "transformer": false, "br_r": 7.84297520661157e-05, "br_x": 0.00031404958677685947, "g_fr": -0.0, "g_to": -0.0, "b_fr": 0.1748610470988079, "b_to": 0.1748610470988079, "rate_a": 28.19778714722132, "rate_b": 250.0, "rate_c": 250.0, "f_bus": 1, "t_bus": 4, "br_status": 1, "angmin": -1.0471975511965976, "angmax": 1.0471975511965976, "tap": 1.0, "shift": 0.0, "construction_cost": 10.0}, "2": {"index": 2, "transformer": false, "br_r": 0.00032066115702479337, "br_x": 0.0006776859504132231, "g_fr": -0.0, "g_to": -0.0, "b_fr": 0.3326161221988194, "b_to": 0.3326161221988194, "rate_a": 17.90940535026219, "rate_b": 250.0, "rate_c": 250.0, "f_bus": 2, "t_bus": 4, "br_status": 1, "angmin": -1.0471975511965976, "angmax": 1.0471975511965976, "tap": 1.0, "shift": 0.0, "construction_cost": 20.0}, "3": {"index": 3, "transformer": false, "br_r": 0.00048099173553719013, "br_x": 0.0010165289256198345, "g_fr": -0.0, "g_to": -0.0, "b_fr": 0.49892418329822913, "b_to": 0.49892418329822913, "rate_a": 17.90940535026219, "rate_b": 250.0, "rate_c": 250.0, "f_bus": 3, "t_bus": 4, "br_status": 1, "angmin": -1.0471975511965976, "angmax": 1.0471975511965976, "tap": 1.0, "shift": 0.0, "construction_cost": 30.0}, "4": {"index": 4, "transformer": false, "br_r": 0.0006413223140495867, "br_x": 0.0013553719008264462, "g_fr": -0.0, "g_to": -0.0, "b_fr": 0.6652322443976388, "b_to": 0.6652322443976388, "rate_a": 17.90940535026219, "rate_b": 250.0, "rate_c": 250.0, "f_bus": 3, "t_bus": 4, "br_status": 1, "angmin": -1.0471975511965976, "angmax": 1.0471975511965976, "tap": 1.0, "shift": 0.0, "construction_cost": 45.0}}, "switch": {}, "baseMVA": 1, "source_version": "2.0.0", "shunt": {}, "sourcetype": "matpower", "per_unit": true, "name": "", "pm_solver": "ipopt", "pm_mip_solver": "cbc", "pm_nl_solver": "ipopt", "pm_model": "DCPPowerModel", "pm_log_level": 0, "pm_time_limit": Infinity, "pm_nl_time_limit": Infinity, "pm_mip_time_limit": Infinity, "correct_pm_network_data": true}
